CHD.pdb
 OpenBabel03242214343D

 68 71  0  0  1  0  0  0  0  0999 V2000
  -11.0880   48.9650   28.4820 C   0  0  0  0  0  0  0  0  0  0  0  0
  -10.6350   47.9620   29.5150 C   0  0  0  0  0  0  0  0  0  0  0  0
  -10.1130   46.7250   28.8230 C   0  0  1  0  0  0  0  0  0  0  0  0
   -9.6750   45.7900   29.8570 O   0  0  0  0  0  0  0  0  0  0  0  0
  -11.2150   46.0670   27.9540 C   0  0  0  0  0  0  0  0  0  0  0  0
  -11.7190   47.0500   26.8640 C   0  0  1  0  0  0  0  0  0  0  0  0
  -12.8330   46.5710   25.8700 C   0  0  0  0  0  0  0  0  0  0  0  0
  -14.2220   46.4620   26.4530 C   0  0  1  0  0  0  0  0  0  0  0  0
  -14.3030   45.3760   27.4540 O   0  0  0  0  0  0  0  0  0  0  0  0
  -14.6220   47.8290   27.0750 C   0  0  2  0  0  0  0  0  0  0  0  0
  -13.5000   48.2920   28.0700 C   0  0  1  0  0  0  0  0  0  0  0  0
  -12.1390   48.4320   27.4710 C   0  0  1  0  0  0  0  0  0  0  0  0
  -13.9990   49.6280   28.7490 C   0  0  0  0  0  0  0  0  0  0  0  0
  -15.4210   49.3590   29.2930 C   0  0  2  0  0  0  0  0  0  0  0  0
  -15.3610   48.7480   30.5240 O   0  0  0  0  0  0  0  0  0  0  0  0
  -16.4260   49.0340   28.3520 C   0  0  1  0  0  0  0  0  0  0  0  0
  -16.0690   47.8110   27.7500 C   0  0  1  0  0  0  0  0  0  0  0  0
  -17.2610   47.4880   26.8480 C   0  0  0  0  0  0  0  0  0  0  0  0
  -18.4080   47.9430   27.7690 C   0  0  0  0  0  0  0  0  0  0  0  0
  -17.8900   48.7630   28.7840 C   0  0  2  0  0  0  0  0  0  0  0  0
  -16.2950   50.1230   27.2070 C   0  0  0  0  0  0  0  0  0  0  0  0
  -12.0730   49.4910   26.2990 C   0  0  0  0  0  0  0  0  0  0  0  0
  -18.8410   49.9940   28.9990 C   0  0  2  0  0  0  0  0  0  0  0  0
  -18.3280   50.9710   30.1100 C   0  0  0  0  0  0  0  0  0  0  0  0
  -20.2650   49.5090   29.3760 C   0  0  0  0  0  0  0  0  0  0  0  0
  -21.2640   50.6710   29.7120 C   0  0  0  0  0  0  0  0  0  0  0  0
  -22.4310   50.0680   30.3670 C   0  0  0  0  0  0  0  0  0  0  0  0
  -23.4930   49.8820   29.5280 O   0  0  0  0  0  0  0  0  0  0  0  0
  -22.5250   49.7170   31.5260 O   0  0  0  0  0  0  0  0  0  0  0  0
  -21.5700   51.1780   28.7960 H   0  0  0  0  0  0  0  0  0  0  0  0
  -10.2130   49.2930   27.9210 H   0  0  0  0  0  0  0  0  0  0  0  0
  -11.4760   47.6940   30.1550 H   0  0  0  0  0  0  0  0  0  0  0  0
   -9.2880   46.9930   28.1630 H   0  0  0  0  0  0  0  0  0  0  0  0
   -9.4720   44.9420   29.4570 H   0  0  0  0  0  0  0  0  0  0  0  0
  -12.0510   45.7810   28.5920 H   0  0  0  0  0  0  0  0  0  0  0  0
  -10.8270   47.1280   26.2420 H   0  0  0  0  0  0  0  0  0  0  0  0
  -12.5480   45.5890   25.4940 H   0  0  0  0  0  0  0  0  0  0  0  0
  -14.9220   46.2110   25.6560 H   0  0  0  0  0  0  0  0  0  0  0  0
  -13.8570   45.6480   28.2590 H   0  0  0  0  0  0  0  0  0  0  0  0
  -14.7030   48.5600   26.2700 H   0  0  0  0  0  0  0  0  0  0  0  0
  -13.3540   47.5050   28.8090 H   0  0  0  0  0  0  0  0  0  0  0  0
  -14.0250   50.4340   28.0150 H   0  0  0  0  0  0  0  0  0  0  0  0
  -15.9020   50.3090   29.5250 H   0  0  0  0  0  0  0  0  0  0  0  0
  -14.7060   48.0460   30.5020 H   0  0  0  0  0  0  0  0  0  0  0  0
  -15.9150   46.9990   28.4610 H   0  0  0  0  0  0  0  0  0  0  0  0
  -17.3210   46.4240   26.6180 H   0  0  0  0  0  0  0  0  0  0  0  0
  -18.8870   47.0710   28.2140 H   0  0  0  0  0  0  0  0  0  0  0  0
  -17.8550   48.3300   29.7840 H   0  0  0  0  0  0  0  0  0  0  0  0
  -16.6900   51.0750   27.5630 H   0  0  0  0  0  0  0  0  0  0  0  0
  -12.7530   50.3150   26.5150 H   0  0  0  0  0  0  0  0  0  0  0  0
  -18.8580   50.5400   28.0560 H   0  0  0  0  0  0  0  0  0  0  0  0
  -18.0880   50.4050   31.0100 H   0  0  0  0  0  0  0  0  0  0  0  0
  -20.1870   48.8590   30.2480 H   0  0  0  0  0  0  0  0  0  0  0  0
  -20.7940   51.4070   30.3640 H   0  0  0  0  0  0  0  0  0  0  0  0
  -11.5740   49.7710   29.0310 H   0  0  0  0  0  0  0  0  0  0  0  0
   -9.8420   48.4000   30.1220 H   0  0  0  0  0  0  0  0  0  0  0  0
  -10.7950   45.1890   27.4640 H   0  0  0  0  0  0  0  0  0  0  0  0
  -12.8930   47.3370   25.0970 H   0  0  0  0  0  0  0  0  0  0  0  0
  -13.3270   49.9280   29.5530 H   0  0  0  0  0  0  0  0  0  0  0  0
  -17.2400   47.9600   25.8660 H   0  0  0  0  0  0  0  0  0  0  0  0
  -19.1430   48.5010   27.1890 H   0  0  0  0  0  0  0  0  0  0  0  0
  -16.8580   49.8000   26.3320 H   0  0  0  0  0  0  0  0  0  0  0  0
  -12.3630   49.0150   25.3620 H   0  0  0  0  0  0  0  0  0  0  0  0
  -19.1030   51.7030   30.3370 H   0  0  0  0  0  0  0  0  0  0  0  0
  -20.6640   48.9910   28.5040 H   0  0  0  0  0  0  0  0  0  0  0  0
  -17.4350   51.4860   29.7560 H   0  0  0  0  0  0  0  0  0  0  0  0
  -15.2450   50.2430   26.9390 H   0  0  0  0  0  0  0  0  0  0  0  0
  -11.0560   49.8730   26.2120 H   0  0  0  0  0  0  0  0  0  0  0  0
  1  2  1  0  0  0  0
  1 12  1  0  0  0  0
  1 31  1  0  0  0  0
  1 55  1  0  0  0  0
  2  3  1  0  0  0  0
  2 32  1  0  0  0  0
  2 56  1  0  0  0  0
  3  4  1  0  0  0  0
  3  5  1  0  0  0  0
  3 33  1  6  0  0  0
  4 34  1  0  0  0  0
  5  6  1  0  0  0  0
  5 35  1  0  0  0  0
  5 57  1  0  0  0  0
  6  7  1  0  0  0  0
  6 12  1  1  0  0  0
  6 36  1  0  0  0  0
  7  8  1  0  0  0  0
  7 37  1  0  0  0  0
  7 58  1  0  0  0  0
  8  9  1  0  0  0  0
  8 10  1  1  0  0  0
  8 38  1  0  0  0  0
  9 39  1  0  0  0  0
 10 11  1  1  0  0  0
 10 40  1  0  0  0  0
 11 12  1  6  0  0  0
 11 13  1  0  0  0  0
 11 41  1  0  0  0  0
 12 22  1  6  0  0  0
 13 14  1  0  0  0  0
 13 42  1  0  0  0  0
 13 59  1  0  0  0  0
 14 15  1  0  0  0  0
 14 16  1  6  0  0  0
 14 43  1  0  0  0  0
 15 44  1  0  0  0  0
 16 17  1  6  0  0  0
 16 21  1  0  0  0  0
 17 10  1  6  0  0  0
 17 18  1  0  0  0  0
 17 45  1  0  0  0  0
 18 19  1  0  0  0  0
 18 46  1  0  0  0  0
 18 60  1  0  0  0  0
 19 20  1  0  0  0  0
 19 47  1  0  0  0  0
 19 61  1  0  0  0  0
 20 16  1  6  0  0  0
 20 23  1  0  0  0  0
 20 48  1  0  0  0  0
 21 49  1  0  0  0  0
 21 62  1  0  0  0  0
 21 67  1  0  0  0  0
 22 50  1  0  0  0  0
 22 63  1  0  0  0  0
 22 68  1  0  0  0  0
 23 24  1  0  0  0  0
 23 25  1  0  0  0  0
 23 51  1  6  0  0  0
 24 52  1  0  0  0  0
 24 64  1  0  0  0  0
 24 66  1  0  0  0  0
 25 26  1  0  0  0  0
 25 53  1  0  0  0  0
 25 65  1  0  0  0  0
 26 27  1  0  0  0  0
 26 30  1  0  0  0  0
 26 54  1  0  0  0  0
 27 28  2  0  0  0  0
 27 29  1  0  0  0  0
M  END
$$$$
