@<TRIPOS>MOLECULE
CHD.pdb
 68 71 0 0 0
SMALL
GASTEIGER

@<TRIPOS>ATOM
      1  C1       -11.0880   48.9650   28.4820 C.3   500  CHD500     -0.0448
      2  C2       -10.6350   47.9620   29.5150 C.3   500  CHD500     -0.0263
      3  C3       -10.1130   46.7250   28.8230 C.3   500  CHD500      0.0555
      4  O3        -9.6750   45.7900   29.8570 O.3   500  CHD500     -0.3918
      5  C4       -11.2150   46.0670   27.9540 C.3   500  CHD500     -0.0234
      6  C5       -11.7190   47.0500   26.8640 C.3   500  CHD500     -0.0307
      7  C6       -12.8330   46.5710   25.8700 C.3   500  CHD500     -0.0232
      8  C7       -14.2220   46.4620   26.4530 C.3   500  CHD500      0.0589
      9  O7       -14.3030   45.3760   27.4540 O.3   500  CHD500     -0.3915
     10  C8       -14.6220   47.8290   27.0750 C.3   500  CHD500     -0.0081
     11  C9       -13.5000   48.2920   28.0700 C.3   500  CHD500     -0.0276
     12  C10      -12.1390   48.4320   27.4710 C.3   500  CHD500     -0.0257
     13  C11      -13.9990   49.6280   28.7490 C.3   500  CHD500     -0.0226
     14  C12      -15.4210   49.3590   29.2930 C.3   500  CHD500      0.0614
     15  O12      -15.3610   48.7480   30.5240 O.3   500  CHD500     -0.3912
     16  C13      -16.4260   49.0340   28.3520 C.3   500  CHD500      0.0001
     17  C14      -16.0690   47.8110   27.7500 C.3   500  CHD500     -0.0276
     18  C15      -17.2610   47.4880   26.8480 C.3   500  CHD500     -0.0490
     19  C16      -18.4080   47.9430   27.7690 C.3   500  CHD500     -0.0491
     20  C17      -17.8900   48.7630   28.7840 C.3   500  CHD500     -0.0304
     21  C18      -16.2950   50.1230   27.2070 C.3   500  CHD500     -0.0567
     22  C19      -12.0730   49.4910   26.2990 C.3   500  CHD500     -0.0590
     23  C20      -18.8410   49.9940   28.9990 C.3   500  CHD500     -0.0400
     24  C21      -18.3280   50.9710   30.1100 C.3   500  CHD500     -0.0621
     25  C22      -20.2650   49.5090   29.3760 C.3   500  CHD500     -0.0400
     26  C23      -21.2640   50.6710   29.7120 C.3   500  CHD500      0.0494
     27  C24      -22.4310   50.0680   30.3670 C.2   500  CHD500      0.3560
     28  O25      -23.4930   49.8820   29.5280 O.co2 500  CHD500     -0.2464
     29  O26      -22.5250   49.7170   31.5260 O.co2 500  CHD500     -0.2464
     30  H01      -21.5700   51.1780   28.7960 H     500  CHD500      0.0379
     31  H02      -10.2130   49.2930   27.9210 H     500  CHD500      0.0271
     32  H03      -11.4760   47.6940   30.1550 H     500  CHD500      0.0290
     33  H04       -9.2880   46.9930   28.1630 H     500  CHD500      0.0593
     34  H05       -9.4720   44.9420   29.4570 H     500  CHD500      0.2098
     35  H06      -12.0510   45.7810   28.5920 H     500  CHD500      0.0293
     36  H07      -10.8270   47.1280   26.2420 H     500  CHD500      0.0308
     37  H08      -12.5480   45.5890   25.4940 H     500  CHD500      0.0293
     38  H09      -14.9220   46.2110   25.6560 H     500  CHD500      0.0596
     39  H10      -13.8570   45.6480   28.2590 H     500  CHD500      0.2098
     40  H11      -14.7030   48.5600   26.2700 H     500  CHD500      0.0331
     41  H12      -13.3540   47.5050   28.8090 H     500  CHD500      0.0310
     42  H13      -14.0250   50.4340   28.0150 H     500  CHD500      0.0293
     43  H14      -15.9020   50.3090   29.5250 H     500  CHD500      0.0599
     44  H15      -14.7060   48.0460   30.5020 H     500  CHD500      0.2098
     45  H16      -15.9150   46.9990   28.4610 H     500  CHD500      0.0310
     46  H17      -17.3210   46.4240   26.6180 H     500  CHD500      0.0268
     47  H18      -18.8870   47.0710   28.2140 H     500  CHD500      0.0268
     48  H19      -17.8550   48.3300   29.7840 H     500  CHD500      0.0310
     49  H20      -16.6900   51.0750   27.5630 H     500  CHD500      0.0236
     50  H21      -12.7530   50.3150   26.5150 H     500  CHD500      0.0235
     51  H22      -18.8580   50.5400   28.0560 H     500  CHD500      0.0301
     52  H23      -18.0880   50.4050   31.0100 H     500  CHD500      0.0233
     53  H24      -20.1870   48.8590   30.2480 H     500  CHD500      0.0273
     54  H25      -20.7940   51.4070   30.3640 H     500  CHD500      0.0379
     55  H26      -11.5740   49.7710   29.0310 H     500  CHD500      0.0271
     56  H27       -9.8420   48.4000   30.1220 H     500  CHD500      0.0290
     57  H28      -10.7950   45.1890   27.4640 H     500  CHD500      0.0293
     58  H29      -12.8930   47.3370   25.0970 H     500  CHD500      0.0293
     59  H30      -13.3270   49.9280   29.5530 H     500  CHD500      0.0293
     60  H31      -17.2400   47.9600   25.8660 H     500  CHD500      0.0268
     61  H32      -19.1430   48.5010   27.1890 H     500  CHD500      0.0268
     62  H33      -16.8580   49.8000   26.3320 H     500  CHD500      0.0236
     63  H34      -12.3630   49.0150   25.3620 H     500  CHD500      0.0235
     64  H35      -19.1030   51.7030   30.3370 H     500  CHD500      0.0233
     65  H36      -20.6640   48.9910   28.5040 H     500  CHD500      0.0273
     66  H37      -17.4350   51.4860   29.7560 H     500  CHD500      0.0233
     67  H38      -15.2450   50.2430   26.9390 H     500  CHD500      0.0236
     68  H39      -11.0560   49.8730   26.2120 H     500  CHD500      0.0235
@<TRIPOS>BOND
     1     1     2    1
     2     1    12    1
     3     1    31    1
     4     1    55    1
     5     2     3    1
     6     2    32    1
     7     2    56    1
     8     3     4    1
     9     3     5    1
    10     3    33    1
    11     4    34    1
    12     5     6    1
    13     5    35    1
    14     5    57    1
    15     6     7    1
    16     6    12    1
    17     6    36    1
    18     7     8    1
    19     7    37    1
    20     7    58    1
    21     8     9    1
    22     8    10    1
    23     8    38    1
    24     9    39    1
    25    10    11    1
    26    10    17    1
    27    10    40    1
    28    11    12    1
    29    11    13    1
    30    11    41    1
    31    12    22    1
    32    13    14    1
    33    13    42    1
    34    13    59    1
    35    14    15    1
    36    14    16    1
    37    14    43    1
    38    15    44    1
    39    16    17    1
    40    16    20    1
    41    16    21    1
    42    17    18    1
    43    17    45    1
    44    18    19    1
    45    18    46    1
    46    18    60    1
    47    19    20    1
    48    19    47    1
    49    19    61    1
    50    20    23    1
    51    20    48    1
    52    21    49    1
    53    21    62    1
    54    21    67    1
    55    22    50    1
    56    22    63    1
    57    22    68    1
    58    23    24    1
    59    23    25    1
    60    23    51    1
    61    24    52    1
    62    24    64    1
    63    24    66    1
    64    25    26    1
    65    25    53    1
    66    25    65    1
    67    26    27    1
    68    26    30    1
    69    26    54    1
    70    27    28   ar
    71    27    29   ar
